<?xml version="1.0" encoding="UTF-8"?>

<routes xmlns:xsi="http://www.w3.org/2001/XMLSchema-instance" xsi:noNamespaceSchemaLocation="http://sumo.dlr.de/xsd/routes_file.xsd">

    <vType id="DEFAULT_VEHTYPE" length="5.0" maxSpeed="15.0" color="yellow"/>

    <flow id="flow_south_to_east" 
          begin="0" 
          end="10000" 
          number="200" 
          from="node2_7_sb" 
          to="node2_3_eb" 
          type="DEFAULT_VEHTYPE"
          departLane="best" />

    <flow id="flow_south_to_west" 
          begin="0" 
          end="1000" 
          number="200" 
          from="node2_7_sb" 
          to="node4_5_wb" 
          type="DEFAULT_VEHTYPE"
          departLane="best" />

    <!-- <flow id="flow_west_to_east" 
          begin="0" 
          end="1000" 
          number="500" 
          from="node4_5_eb" 
          to="node1_2_wb" 
          type="DEFAULT_VEHTYPE"
          departLane="best" /> -->
          
    <!-- <flow id="flow_west_to_north" 
          begin="0" 
          end="1000" 
          number="500" 
          from="node4_5_eb" 
          to="node2_7_nb" 
          type="DEFAULT_VEHTYPE"
          departLane="best" /> -->
    <flow id="flow_west_to_south" 
          begin="0" 
          end="1000" 
          number="100" 
          from="node1_2_eb" 
          to="node1_4_nw" 
          type="DEFAULT_VEHTYPE"
          departLane="best" />

    <flow id="flow_west_to_north" 
          begin="0" 
          end="1000" 
          number="100" 
          from="node1_2_eb" 
          to="node3_6_sw" 
          type="DEFAULT_VEHTYPE"
          departLane="best" />

</routes>