<routes>
    <vType id="car" accel="1.0" decel="5.0" sigma="0.5" length="5" maxSpeed="5" color="1,0,0"/>

    <route id="route0" edges="e0"/>
    <route id="route1" edges="e1"/>

    <vehicle id="veh0" type="car" route="route0" depart="0"/>
    <vehicle id="veh1" type="car" route="route1" depart="5"/>
</routes>
